IEEE_14_Bus_Proyecto.m
function mpc = Base_14bus_matpower
% DATOS DEL SISTEMA IEEE 14 BARRAS - VERSIÓN PROYECTO
% Formato: MATPOWER
% Descripción: Estos datos han sido adaptados desde el formato PSAT.

%% MATPOWER Case Format : Version 2
mpc.version = '2';

%% System MVA base
mpc.baseMVA = 100;

%% Bus Data
% bus_i type Pd     Qd      Gs Bs area  Vm      Va     baseKV zone Vmax Vmin
mpc.bus = [
    1   3   0       0       0   0   1   1.04    0       69      1   1.2 0.8;
    2   2   21.7    12.7    0   0   1   1.03   0       69      1   1.2 0.8;
    3   2   94.2    19.0    0   0   1   1.01    0       69      1   1.2 0.8;
    4   1   47.8    0       0   0   1   1.0     0       69      1   1.2 0.8;
    5   1   7.6     1.6     0   0   1   1.0     0       69      1   1.2 0.8;
    6   2   11.2    7.5     0   0   1   1.025    0       13.8    1   1.2 0.8;
    7   1   0       0       0   0   1   1.0     0       13.8    1   1.2 0.8;
    8   2   0       0       0   0   1   1.035    0       18.0    1   1.2 0.8;
    9   1   29.5    16.6    0   0   1   1.0     0       13.8    1   1.2 0.8;
    10  1   9.0     5.8     0   0   1   1.0     0       13.8    1   1.2 0.8;
    11  1   3.5     1.8     0   0   1   1.0     0       13.8    1   1.2 0.8;
    12  1   6.1     1.6     0   0   1   1.0     0       13.8    1   1.2 0.8;
    13  1   13.5    5.8     0   0   1   1.0     0       13.8    1   1.2 0.8;
    14  1   14.9    5.0     0   0   1   1.0     0       13.8    1   1.2 0.8;
];

%% Generator Data
% bus   Pg      Qg  Qmax    Qmin    Vg     mBase status Pmax Pmin
mpc.gen = [
    1   92.4   0   1000    -1000   1.04    100   1     100   0;
    2   40.0    0   50      -40     1.03    100   1     72   0;
    3   0       0   40      0       1.01    100   1     90   0;
    6   0       0   24      -6      1.025   100   1     60   0;
    8   0       0   24      -6      1.035   100   1     55   0;
];

%% Branch Data
% fbus tbus r        x        b     rateA rateB rateC ratio angle status angmin angmax
mpc.branch = [
    1   2   0.02017  0.05962  0.0528  0    0    0    0       0   1   -360    360;
    1   5   0.05358  0.22412  0.0492  0    0    0    0       0   1   -360    360;
    2   3   0.04711  0.19858  0.0438  0    0    0    0       0   1   -360    360;
    2   4   0.05682  0.17626  0.0374  0    0    0    0       0   1   -360    360;
    2   5   0.05657  0.17320  0.0340  0    0    0    0       0   1   -360    360;
    3   4   0.06685  0.17032  0.0346  0    0    0    0       0   1   -360    360;
    4   5   0.01326  0.04296  0.0128  0    0    0    0       0   1   -360    360;
    4   7   0        0.20867  0       0    0    0    0       0   1   -360    360;
    4   9   0        0.55574  0       0    0    0    0       0   1   -360    360;
    5   6   0        0.25111  0       0    0    0    0       0   1   -360    360;
    6   11  0.09542  0.19842  0       0    0    0    0       0   1   -360    360;
    6   12  0.12287  0.25671  0       0    0    0    0       0   1   -360    360;
    6   13  0.06589  0.13098  0       0    0    0    0       0   1   -360    360;
    7   8   0        0.17582  0       0    0    0    0       0   1   -360    360;
    7   9   0        0.10992  0       0    0    0    0       0   1   -360    360;
    9   10  0.03113  0.08474  0       0    0    0    0       0   1   -360    360;
    9   14  0.12900  0.26941  0       0    0    0    0       0   1   -360    360;
    10  11  0.08154  0.19173  0       0    0    0    0       0   1   -360    360;
    12  13  0.19911  0.22115  0       0    0    0    0       0   1   -360    360;
    13  14  0.17137  0.34777  0       0    0    0    0       0   1   -360    360;
];
